<?xml version="1.0" encoding="UTF-8"?>

<!-- generated on 2024-05-29 18:08:20 by Eclipse SUMO netgenerate Version 1.20.0
<configuration xmlns:xsi="http://www.w3.org/2001/XMLSchema-instance" xsi:noNamespaceSchemaLocation="http://sumo.dlr.de/xsd/netgenerateConfiguration.xsd">

    <spider_network>
        <spider value="true"/>
        <spider.arm-number value="7"/>
        <spider.circle-number value="3"/>
        <spider.space-radius value="200"/>
    </spider_network>

    <output>
        <output-file value="spiderman.net.xml"/>
    </output>

</configuration>
-->

<net version="1.20" junctionCornerDetail="5" limitTurnSpeed="5.50" xmlns:xsi="http://www.w3.org/2001/XMLSchema-instance" xsi:noNamespaceSchemaLocation="http://sumo.dlr.de/xsd/net_file.xsd">

    <location netOffset="540.58,584.96" convBoundary="0.00,0.00,1140.58,1169.91" origBoundary="-540.58,-584.96,600.00,584.96" projParameter="!"/>

    <edge id=":A1_0" function="internal">
        <lane id=":A1_0_0" index="0" speed="5.54" length="9.46" shape="545.97,594.28 543.87,592.22 542.14,591.77 540.77,592.93 539.77,595.69"/>
    </edge>
    <edge id=":A1_1" function="internal">
        <lane id=":A1_1_0" index="0" speed="9.25" length="16.00" shape="545.97,594.28 542.88,591.33 539.48,589.80 535.74,589.70 531.68,591.02"/>
    </edge>
    <edge id=":A1_2" function="internal">
        <lane id=":A1_2_0" index="0" speed="13.89" length="20.14" shape="545.97,594.28 542.84,590.98 538.65,587.38 534.21,584.10 530.30,581.78"/>
    </edge>
    <edge id=":A1_3" function="internal">
        <lane id=":A1_3_0" index="0" speed="13.89" length="21.56" shape="545.97,594.28 543.35,590.29 540.56,584.97 538.14,579.46 536.65,574.93"/>
    </edge>
    <edge id=":A1_4" function="internal">
        <lane id=":A1_4_0" index="0" speed="10.38" length="20.36" shape="545.97,594.28 543.18,589.62 542.25,584.96 543.18,580.30 545.97,575.64"/>
    </edge>
    <edge id=":A1_5" function="internal">
        <lane id=":A1_5_0" index="0" speed="6.53" length="13.76" shape="545.97,594.28 545.16,591.24 546.14,587.63 548.35,584.62 551.23,583.36"/>
    </edge>
    <edge id=":A1_6" function="internal">
        <lane id=":A1_6_0" index="0" speed="3.65" length="4.67" shape="545.97,594.28 545.84,592.84 546.22,592.03 547.10,591.84 548.47,592.28"/>
    </edge>
    <edge id=":A1_7" function="internal">
        <lane id=":A1_7_0" index="0" speed="5.54" length="9.46" shape="551.23,586.56 548.31,586.91 546.88,587.99 546.93,589.78 548.47,592.28"/>
    </edge>
    <edge id=":A1_8" function="internal">
        <lane id=":A1_8_0" index="0" speed="9.25" length="16.00" shape="551.23,586.56 547.00,587.13 543.68,588.84 541.27,591.69 539.77,595.69"/>
    </edge>
    <edge id=":A1_9" function="internal">
        <lane id=":A1_9_0" index="0" speed="13.89" length="20.14" shape="551.23,586.56 546.70,586.95 541.27,587.97 535.94,589.40 531.68,591.02"/>
    </edge>
    <edge id=":A1_10" function="internal">
        <lane id=":A1_10_0" index="0" speed="13.89" length="21.56" shape="551.23,586.56 546.48,586.12 540.58,584.98 534.76,583.44 530.30,581.78"/>
    </edge>
    <edge id=":A1_11" function="internal">
        <lane id=":A1_11_0" index="0" speed="10.38" length="20.36" shape="551.23,586.56 545.85,585.83 541.62,583.65 538.56,580.02 536.65,574.93"/>
    </edge>
    <edge id=":A1_12" function="internal">
        <lane id=":A1_12_0" index="0" speed="6.53" length="13.76" shape="551.23,586.56 548.35,585.29 546.14,582.28 545.16,578.68 545.97,575.64"/>
    </edge>
    <edge id=":A1_13" function="internal">
        <lane id=":A1_13_0" index="0" speed="3.65" length="4.67" shape="551.23,586.56 550.03,585.76 549.63,584.96 550.03,584.16 551.23,583.36"/>
    </edge>
    <edge id=":A1_14" function="internal">
        <lane id=":A1_14_0" index="0" speed="5.54" length="9.46" shape="548.47,577.63 546.93,580.14 546.88,581.93 548.31,583.00 551.23,583.36"/>
    </edge>
    <edge id=":A1_15" function="internal">
        <lane id=":A1_15_0" index="0" speed="9.25" length="16.00" shape="548.47,577.63 546.28,581.29 545.55,584.96 546.28,588.62 548.47,592.28"/>
    </edge>
    <edge id=":A1_16" function="internal">
        <lane id=":A1_16_0" index="0" speed="13.89" length="20.14" shape="548.47,577.63 545.95,581.42 543.37,586.30 541.16,591.36 539.77,595.69"/>
    </edge>
    <edge id=":A1_17" function="internal">
        <lane id=":A1_17_0" index="0" speed="13.89" length="21.56" shape="548.47,577.63 545.16,581.07 540.60,584.98 535.77,588.56 531.68,591.02"/>
    </edge>
    <edge id=":A1_18" function="internal">
        <lane id=":A1_18_0" index="0" speed="10.38" length="20.36" shape="548.47,577.63 544.55,581.39 540.21,583.33 535.46,583.46 530.30,581.78"/>
    </edge>
    <edge id=":A1_19" function="internal">
        <lane id=":A1_19_0" index="0" speed="6.53" length="13.76" shape="548.47,577.63 545.69,579.10 541.95,578.94 538.52,577.46 536.65,574.93"/>
    </edge>
    <edge id=":A1_20" function="internal">
        <lane id=":A1_20_0" index="0" speed="3.65" length="4.67" shape="548.47,577.63 547.10,578.07 546.22,577.89 545.84,577.07 545.97,575.64"/>
    </edge>
    <edge id=":A1_21" function="internal">
        <lane id=":A1_21_0" index="0" speed="5.54" length="9.46" shape="539.77,574.22 540.77,576.99 542.14,578.15 543.87,577.70 545.97,575.64"/>
    </edge>
    <edge id=":A1_22" function="internal">
        <lane id=":A1_22_0" index="0" speed="9.25" length="16.00" shape="539.77,574.22 541.27,578.22 543.68,581.07 547.00,582.79 551.23,583.36"/>
    </edge>
    <edge id=":A1_23" function="internal">
        <lane id=":A1_23_0" index="0" speed="13.89" length="20.14" shape="539.77,574.22 541.16,578.55 543.37,583.61 545.95,588.50 548.47,592.28"/>
    </edge>
    <edge id=":A1_24" function="internal">
        <lane id=":A1_24_0" index="0" speed="13.89" length="21.56" shape="539.77,574.22 540.40,578.95 540.61,584.96 540.40,590.97 539.77,595.69"/>
    </edge>
    <edge id=":A1_25" function="internal">
        <lane id=":A1_25_0" index="0" speed="10.38" length="20.36" shape="539.77,574.22 540.26,579.63 539.08,584.23 536.22,588.03 531.68,591.02"/>
    </edge>
    <edge id=":A1_26" function="internal">
        <lane id=":A1_26_0" index="0" speed="6.53" length="13.76" shape="539.77,574.22 539.18,577.31 536.74,580.14 533.44,581.89 530.30,581.78"/>
    </edge>
    <edge id=":A1_27" function="internal">
        <lane id=":A1_27_0" index="0" speed="3.65" length="4.67" shape="539.77,574.22 539.26,575.57 538.57,576.14 537.70,575.93 536.65,574.93"/>
    </edge>
    <edge id=":A1_28" function="internal">
        <lane id=":A1_28_0" index="0" speed="5.54" length="9.46" shape="531.68,578.90 534.47,579.84 536.23,579.49 536.95,577.86 536.65,574.93"/>
    </edge>
    <edge id=":A1_29" function="internal">
        <lane id=":A1_29_0" index="0" speed="9.25" length="16.00" shape="531.68,578.90 535.74,580.22 539.48,580.11 542.88,578.59 545.97,575.64"/>
    </edge>
    <edge id=":A1_30" function="internal">
        <lane id=":A1_30_0" index="0" speed="13.89" length="20.14" shape="531.68,578.90 535.94,580.51 541.27,581.94 546.70,582.96 551.23,583.36"/>
    </edge>
    <edge id=":A1_31" function="internal">
        <lane id=":A1_31_0" index="0" speed="13.89" length="21.56" shape="531.68,578.90 535.77,581.35 540.60,584.94 545.16,588.85 548.47,592.28"/>
    </edge>
    <edge id=":A1_32" function="internal">
        <lane id=":A1_32_0" index="0" speed="10.38" length="20.36" shape="531.68,578.90 536.22,581.89 539.08,585.68 540.26,590.28 539.77,595.69"/>
    </edge>
    <edge id=":A1_33" function="internal">
        <lane id=":A1_33_0" index="0" speed="6.53" length="13.76" shape="531.68,578.90 533.73,581.28 534.41,584.96 533.73,588.63 531.68,591.02"/>
    </edge>
    <edge id=":A1_34" function="internal">
        <lane id=":A1_34_0" index="0" speed="3.65" length="4.67" shape="531.68,578.90 532.42,580.14 532.43,581.03 531.72,581.58 530.30,581.78"/>
    </edge>
    <edge id=":A1_35" function="internal">
        <lane id=":A1_35_0" index="0" speed="5.54" length="9.46" shape="530.30,588.13 532.77,586.55 533.60,584.96 532.77,583.37 530.30,581.78"/>
    </edge>
    <edge id=":A1_36" function="internal">
        <lane id=":A1_36_0" index="0" speed="9.25" length="16.00" shape="530.30,588.13 533.86,585.78 536.11,582.80 537.04,579.18 536.65,574.93"/>
    </edge>
    <edge id=":A1_37" function="internal">
        <lane id=":A1_37_0" index="0" speed="13.89" length="20.14" shape="530.30,588.13 534.21,585.82 538.65,582.54 542.84,578.93 545.97,575.64"/>
    </edge>
    <edge id=":A1_38" function="internal">
        <lane id=":A1_38_0" index="0" speed="13.89" length="21.56" shape="530.30,588.13 534.76,586.47 540.58,584.93 546.48,583.80 551.23,583.36"/>
    </edge>
    <edge id=":A1_39" function="internal">
        <lane id=":A1_39_0" index="0" speed="10.38" length="20.36" shape="530.30,588.13 535.46,586.45 540.21,586.58 544.55,588.53 548.47,592.28"/>
    </edge>
    <edge id=":A1_40" function="internal">
        <lane id=":A1_40_0" index="0" speed="6.53" length="13.76" shape="530.30,588.13 533.44,588.02 536.74,589.78 539.18,592.60 539.77,595.69"/>
    </edge>
    <edge id=":A1_41" function="internal">
        <lane id=":A1_41_0" index="0" speed="3.65" length="4.67" shape="530.30,588.13 531.72,588.33 532.43,588.88 532.42,589.78 531.68,591.02"/>
    </edge>
    <edge id=":A1_42" function="internal">
        <lane id=":A1_42_0" index="0" speed="5.54" length="9.46" shape="536.65,594.98 536.95,592.05 536.23,590.42 534.47,590.07 531.68,591.02"/>
    </edge>
    <edge id=":A1_43" function="internal">
        <lane id=":A1_43_0" index="0" speed="9.25" length="16.00" shape="536.65,594.98 537.04,590.73 536.11,587.11 533.86,584.13 530.30,581.78"/>
    </edge>
    <edge id=":A1_44" function="internal">
        <lane id=":A1_44_0" index="0" speed="13.89" length="20.14" shape="536.65,594.98 537.28,590.48 537.49,584.96 537.28,579.44 536.65,574.93"/>
    </edge>
    <edge id=":A1_45" function="internal">
        <lane id=":A1_45_0" index="0" speed="13.89" length="21.56" shape="536.65,594.98 538.14,590.45 540.56,584.95 543.35,579.62 545.97,575.64"/>
    </edge>
    <edge id=":A1_46" function="internal">
        <lane id=":A1_46_0" index="0" speed="10.38" length="20.36" shape="536.65,594.98 538.56,589.89 541.62,586.26 545.85,584.08 551.23,583.36"/>
    </edge>
    <edge id=":A1_47" function="internal">
        <lane id=":A1_47_0" index="0" speed="6.53" length="13.76" shape="536.65,594.98 538.52,592.45 541.95,590.97 545.69,590.82 548.47,592.28"/>
    </edge>
    <edge id=":A1_48" function="internal">
        <lane id=":A1_48_0" index="0" speed="3.65" length="4.67" shape="536.65,594.98 537.70,593.99 538.57,593.77 539.26,594.34 539.77,595.69"/>
    </edge>
    <edge id=":B1_0" function="internal">
        <lane id=":B1_0_0" index="0" speed="8.94" length="11.80" shape="746.59,586.56 744.18,587.01 741.96,588.38 739.93,590.66 738.08,593.84"/>
    </edge>
    <edge id=":B1_1" function="internal">
        <lane id=":B1_1_0" index="0" speed="13.89" length="15.10" shape="746.59,586.56 731.49,586.56"/>
    </edge>
    <edge id=":B1_2" function="internal">
        <lane id=":B1_2_0" index="0" speed="10.14" length="3.58" shape="746.59,586.56 743.25,585.99 743.08,585.90"/>
    </edge>
    <edge id=":B1_3" function="internal">
        <lane id=":B1_3_0" index="0" speed="3.65" length="1.44" shape="746.59,586.56 745.39,585.76"/>
    </edge>
    <edge id=":B1_16" function="internal">
        <lane id=":B1_16_0" index="0" speed="10.14" length="11.81" shape="743.08,585.90 740.23,584.28 737.55,581.44 735.19,577.46"/>
    </edge>
    <edge id=":B1_17" function="internal">
        <lane id=":B1_17_0" index="0" speed="3.65" length="3.23" shape="745.39,585.76 744.99,584.96 745.39,584.16 746.59,583.36"/>
    </edge>
    <edge id=":B1_4" function="internal">
        <lane id=":B1_4_0" index="0" speed="8.94" length="11.80" shape="738.08,576.07 739.93,579.26 741.96,581.54 744.18,582.90 746.59,583.36"/>
    </edge>
    <edge id=":B1_5" function="internal">
        <lane id=":B1_5_0" index="0" speed="12.79" length="18.40" shape="738.08,576.07 739.68,580.51 740.22,584.96 739.68,589.40 738.08,593.84"/>
    </edge>
    <edge id=":B1_6" function="internal">
        <lane id=":B1_6_0" index="0" speed="7.44" length="16.31" shape="738.08,576.07 739.56,580.66 738.96,583.94 736.27,585.90 731.49,586.56"/>
    </edge>
    <edge id=":B1_7" function="internal">
        <lane id=":B1_7_0" index="0" speed="3.65" length="4.67" shape="738.08,576.07 737.88,577.50 737.33,578.21 736.44,578.19 735.19,577.46"/>
    </edge>
    <edge id=":B1_8" function="internal">
        <lane id=":B1_8_0" index="0" speed="5.75" length="9.17" shape="731.49,583.36 734.18,582.99 735.69,581.88 736.03,580.04 735.19,577.46"/>
    </edge>
    <edge id=":B1_9" function="internal">
        <lane id=":B1_9_0" index="0" speed="13.89" length="15.10" shape="731.49,583.36 746.59,583.36"/>
    </edge>
    <edge id=":B1_10" function="internal">
        <lane id=":B1_10_0" index="0" speed="7.44" length="4.82" shape="731.49,583.36 736.27,584.01"/>
    </edge>
    <edge id=":B1_11" function="internal">
        <lane id=":B1_11_0" index="0" speed="3.65" length="1.44" shape="731.49,583.36 732.69,584.16"/>
    </edge>
    <edge id=":B1_18" function="internal">
        <lane id=":B1_18_0" index="0" speed="7.44" length="11.49" shape="736.27,584.01 738.96,585.98 739.56,589.26 738.08,593.84"/>
    </edge>
    <edge id=":B1_19" function="internal">
        <lane id=":B1_19_0" index="0" speed="3.65" length="3.23" shape="732.69,584.16 733.09,584.96 732.69,585.76 731.49,586.56"/>
    </edge>
    <edge id=":B1_12" function="internal">
        <lane id=":B1_12_0" index="0" speed="5.75" length="9.17" shape="735.19,592.45 736.03,589.87 735.69,588.03 734.18,586.93 731.49,586.56"/>
    </edge>
    <edge id=":B1_13" function="internal">
        <lane id=":B1_13_0" index="0" speed="11.78" length="15.52" shape="735.19,592.45 736.55,588.71 737.00,584.96 736.55,581.21 735.19,577.46"/>
    </edge>
    <edge id=":B1_14" function="internal">
        <lane id=":B1_14_0" index="0" speed="10.14" length="15.39" shape="735.19,592.45 737.55,588.47 740.23,585.63 743.25,583.93 746.59,583.36"/>
    </edge>
    <edge id=":B1_15" function="internal">
        <lane id=":B1_15_0" index="0" speed="3.65" length="4.67" shape="735.19,592.45 736.44,591.72 737.33,591.71 737.88,592.41 738.08,593.84"/>
    </edge>
    <edge id=":B2_0" function="internal">
        <lane id=":B2_0_0" index="0" speed="8.94" length="11.80" shape="667.78,747.02 665.92,745.42 663.46,744.53 660.42,744.36 656.77,744.91"/>
    </edge>
    <edge id=":B2_1" function="internal">
        <lane id=":B2_1_0" index="0" speed="13.89" length="15.10" shape="667.78,747.02 658.36,735.21"/>
    </edge>
    <edge id=":B2_2" function="internal">
        <lane id=":B2_2_0" index="0" speed="10.14" length="3.58" shape="667.78,747.02 666.14,744.05 666.11,743.87"/>
    </edge>
    <edge id=":B2_3" function="internal">
        <lane id=":B2_3_0" index="0" speed="3.65" length="1.44" shape="667.78,747.02 667.65,745.58"/>
    </edge>
    <edge id=":B2_16" function="internal">
        <lane id=":B2_16_0" index="0" speed="10.14" length="11.81" shape="666.11,743.87 665.59,740.63 666.14,736.76 667.78,732.44"/>
    </edge>
    <edge id=":B2_17" function="internal">
        <lane id=":B2_17_0" index="0" speed="3.65" length="3.23" shape="667.65,745.58 668.03,744.77 668.90,744.59 670.28,745.02"/>
    </edge>
    <edge id=":B2_4" function="internal">
        <lane id=":B2_4_0" index="0" speed="8.94" length="11.80" shape="670.67,733.82 669.33,737.26 668.81,740.27 669.13,742.86 670.28,745.02"/>
    </edge>
    <edge id=":B2_5" function="internal">
        <lane id=":B2_5_0" index="0" speed="12.79" length="18.40" shape="670.67,733.82 668.19,737.85 665.05,741.04 661.24,743.39 656.77,744.91"/>
    </edge>
    <edge id=":B2_6" function="internal">
        <lane id=":B2_6_0" index="0" speed="7.44" length="16.31" shape="670.67,733.82 668.00,737.84 665.06,739.41 661.85,738.54 658.36,735.21"/>
    </edge>
    <edge id=":B2_7" function="internal">
        <lane id=":B2_7_0" index="0" speed="3.65" length="4.67" shape="670.67,733.82 669.42,734.56 668.53,734.57 667.98,733.86 667.78,732.44"/>
    </edge>
    <edge id=":B2_8" function="internal">
        <lane id=":B2_8_0" index="0" speed="5.75" length="9.17" shape="660.86,733.22 662.82,735.09 664.63,735.58 666.29,734.70 667.78,732.44"/>
    </edge>
    <edge id=":B2_9" function="internal">
        <lane id=":B2_9_0" index="0" speed="13.89" length="15.10" shape="660.86,733.22 670.28,745.02"/>
    </edge>
    <edge id=":B2_10" function="internal">
        <lane id=":B2_10_0" index="0" speed="7.44" length="4.82" shape="660.86,733.22 663.33,737.36"/>
    </edge>
    <edge id=":B2_11" function="internal">
        <lane id=":B2_11_0" index="0" speed="3.65" length="1.44" shape="660.86,733.22 660.98,734.65"/>
    </edge>
    <edge id=":B2_18" function="internal">
        <lane id=":B2_18_0" index="0" speed="7.44" length="11.49" shape="663.33,737.36 663.47,740.69 661.28,743.20 656.77,744.91"/>
    </edge>
    <edge id=":B2_19" function="internal">
        <lane id=":B2_19_0" index="0" speed="3.65" length="3.23" shape="660.98,734.65 660.61,735.46 659.73,735.65 658.36,735.21"/>
    </edge>
    <edge id=":B2_12" function="internal">
        <lane id=":B2_12_0" index="0" speed="5.75" length="9.17" shape="656.06,741.79 658.60,740.83 659.82,739.41 659.75,737.54 658.36,735.21"/>
    </edge>
    <edge id=":B2_13" function="internal">
        <lane id=":B2_13_0" index="0" speed="11.78" length="15.52" shape="656.06,741.79 659.83,740.51 663.05,738.52 665.70,735.83 667.78,732.44"/>
    </edge>
    <edge id=":B2_14" function="internal">
        <lane id=":B2_14_0" index="0" speed="10.14" length="15.39" shape="656.06,741.79 660.64,741.15 664.54,741.47 667.75,742.77 670.28,745.02"/>
    </edge>
    <edge id=":B2_15" function="internal">
        <lane id=":B2_15_0" index="0" speed="3.65" length="4.67" shape="656.06,741.79 657.41,742.30 657.97,742.99 657.76,743.86 656.77,744.91"/>
    </edge>
    <edge id=":B3_0" function="internal">
        <lane id=":B3_0_0" index="0" speed="8.94" length="11.80" shape="505.30,779.48 501.78,780.57 499.11,782.05 497.28,783.91 496.30,786.16"/>
    </edge>
    <edge id=":B3_1" function="internal">
        <lane id=":B3_1_0" index="0" speed="12.79" length="18.40" shape="505.30,779.48 500.61,780.05 496.16,779.59 491.95,778.08 487.97,775.52"/>
    </edge>
    <edge id=":B3_2" function="internal">
        <lane id=":B3_2_0" index="0" speed="7.44" length="16.31" shape="505.30,779.48 500.50,779.90 497.43,778.58 496.12,775.52 496.54,770.72"/>
    </edge>
    <edge id=":B3_3" function="internal">
        <lane id=":B3_3_0" index="0" speed="3.65" length="4.67" shape="505.30,779.48 503.95,778.97 503.38,778.28 503.59,777.41 504.59,776.36"/>
    </edge>
    <edge id=":B3_4" function="internal">
        <lane id=":B3_4_0" index="0" speed="5.75" length="9.17" shape="499.66,771.43 499.42,774.13 500.16,775.86 501.88,776.60 504.59,776.36"/>
    </edge>
    <edge id=":B3_5" function="internal">
        <lane id=":B3_5_0" index="0" speed="13.89" length="15.10" shape="499.66,771.43 496.30,786.16"/>
    </edge>
    <edge id=":B3_6" function="internal">
        <lane id=":B3_6_0" index="0" speed="7.44" length="4.82" shape="499.66,771.43 497.96,775.94"/>
    </edge>
    <edge id=":B3_7" function="internal">
        <lane id=":B3_7_0" index="0" speed="3.65" length="1.44" shape="499.66,771.43 498.61,772.43"/>
    </edge>
    <edge id=":B3_16" function="internal">
        <lane id=":B3_16_0" index="0" speed="7.44" length="11.49" shape="497.96,775.94 495.44,778.13 492.11,777.99 487.97,775.52"/>
    </edge>
    <edge id=":B3_17" function="internal">
        <lane id=":B3_17_0" index="0" speed="3.65" length="3.23" shape="498.61,772.43 497.74,772.64 497.05,772.07 496.54,770.72"/>
    </edge>
    <edge id=":B3_8" function="internal">
        <lane id=":B3_8_0" index="0" speed="5.75" length="9.17" shape="489.97,773.02 492.30,774.41 494.17,774.49 495.58,773.26 496.54,770.72"/>
    </edge>
    <edge id=":B3_9" function="internal">
        <lane id=":B3_9_0" index="0" speed="11.78" length="15.52" shape="489.97,773.02 493.32,775.18 496.87,776.45 500.63,776.85 504.59,776.36"/>
    </edge>
    <edge id=":B3_10" function="internal">
        <lane id=":B3_10_0" index="0" speed="10.14" length="15.39" shape="489.97,773.02 493.32,776.20 495.50,779.45 496.49,782.77 496.30,786.16"/>
    </edge>
    <edge id=":B3_11" function="internal">
        <lane id=":B3_11_0" index="0" speed="3.65" length="4.67" shape="489.97,773.02 490.41,774.40 490.22,775.27 489.41,775.65 487.97,775.52"/>
    </edge>
    <edge id=":B3_12" function="internal">
        <lane id=":B3_12_0" index="0" speed="8.94" length="11.80" shape="493.18,785.45 493.27,783.00 492.43,780.53 490.67,778.04 487.97,775.52"/>
    </edge>
    <edge id=":B3_13" function="internal">
        <lane id=":B3_13_0" index="0" speed="13.89" length="15.10" shape="493.18,785.45 496.54,770.72"/>
    </edge>
    <edge id=":B3_14" function="internal">
        <lane id=":B3_14_0" index="0" speed="10.14" length="3.58" shape="493.18,785.45 494.48,782.31 494.61,782.17"/>
    </edge>
    <edge id=":B3_15" function="internal">
        <lane id=":B3_15_0" index="0" speed="3.65" length="1.44" shape="493.18,785.45 494.23,784.45"/>
    </edge>
    <edge id=":B3_18" function="internal">
        <lane id=":B3_18_0" index="0" speed="10.14" length="11.81" shape="494.61,782.17 496.81,779.75 500.18,777.77 504.59,776.36"/>
    </edge>
    <edge id=":B3_19" function="internal">
        <lane id=":B3_19_0" index="0" speed="3.65" length="3.23" shape="494.23,784.45 495.10,784.24 495.79,784.81 496.30,786.16"/>
    </edge>
    <edge id=":B4_0" function="internal">
        <lane id=":B4_0_0" index="0" speed="8.94" length="11.80" shape="366.50,678.65 363.45,676.58 360.63,675.41 358.03,675.15 355.67,675.78"/>
    </edge>
    <edge id=":B4_1" function="internal">
        <lane id=":B4_1_0" index="0" speed="12.79" length="18.40" shape="366.50,678.65 363.13,675.35 360.72,671.58 359.27,667.34 358.79,662.64"/>
    </edge>
    <edge id=":B4_2" function="internal">
        <lane id=":B4_2_0" index="0" speed="7.44" length="16.31" shape="366.50,678.65 363.17,675.16 362.30,671.95 363.87,669.01 367.89,666.35"/>
    </edge>
    <edge id=":B4_3" function="internal">
        <lane id=":B4_3_0" index="0" speed="3.65" length="4.67" shape="366.50,678.65 366.06,677.28 366.25,676.41 367.06,676.03 368.49,676.15"/>
    </edge>
    <edge id=":B4_4" function="internal">
        <lane id=":B4_4_0" index="0" speed="5.75" length="9.17" shape="369.27,669.23 367.01,670.73 366.13,672.38 366.62,674.19 368.49,676.15"/>
    </edge>
    <edge id=":B4_5" function="internal">
        <lane id=":B4_5_0" index="0" speed="13.89" length="15.10" shape="369.27,669.23 355.67,675.78"/>
    </edge>
    <edge id=":B4_6" function="internal">
        <lane id=":B4_6_0" index="0" speed="7.44" length="4.82" shape="369.27,669.23 364.69,670.71"/>
    </edge>
    <edge id=":B4_7" function="internal">
        <lane id=":B4_7_0" index="0" speed="3.65" length="1.44" shape="369.27,669.23 367.85,669.03"/>
    </edge>
    <edge id=":B4_16" function="internal">
        <lane id=":B4_16_0" index="0" speed="7.44" length="11.49" shape="364.69,670.71 361.41,670.11 359.44,667.42 358.79,662.64"/>
    </edge>
    <edge id=":B4_17" function="internal">
        <lane id=":B4_17_0" index="0" speed="3.65" length="3.23" shape="367.85,669.03 367.14,668.48 367.15,667.59 367.89,666.35"/>
    </edge>
    <edge id=":B4_8" function="internal">
        <lane id=":B4_8_0" index="0" speed="5.75" length="9.17" shape="361.99,662.64 362.36,665.33 363.46,666.84 365.31,667.18 367.89,666.35"/>
    </edge>
    <edge id=":B4_9" function="internal">
        <lane id=":B4_9_0" index="0" speed="11.78" length="15.52" shape="361.99,662.64 362.39,666.61 363.61,670.18 365.65,673.36 368.49,676.15"/>
    </edge>
    <edge id=":B4_10" function="internal">
        <lane id=":B4_10_0" index="0" speed="10.14" length="15.39" shape="361.99,662.64 361.59,667.25 360.41,670.98 358.43,673.82 355.67,675.78"/>
    </edge>
    <edge id=":B4_11" function="internal">
        <lane id=":B4_11_0" index="0" speed="3.65" length="4.67" shape="361.99,662.64 361.19,663.84 360.39,664.24 359.59,663.84 358.79,662.64"/>
    </edge>
    <edge id=":B4_12" function="internal">
        <lane id=":B4_12_0" index="0" speed="8.94" length="11.80" shape="354.28,672.90 356.25,671.44 357.66,669.25 358.51,666.31 358.79,662.64"/>
    </edge>
    <edge id=":B4_13" function="internal">
        <lane id=":B4_13_0" index="0" speed="13.89" length="15.10" shape="354.28,672.90 367.89,666.35"/>
    </edge>
    <edge id=":B4_14" function="internal">
        <lane id=":B4_14_0" index="0" speed="10.14" length="3.58" shape="354.28,672.90 357.54,671.96 357.73,671.97"/>
    </edge>
    <edge id=":B4_15" function="internal">
        <lane id=":B4_15_0" index="0" speed="3.65" length="1.44" shape="354.28,672.90 355.71,673.10"/>
    </edge>
    <edge id=":B4_18" function="internal">
        <lane id=":B4_18_0" index="0" speed="10.14" length="11.81" shape="357.73,671.97 360.99,672.19 364.64,673.59 368.49,676.15"/>
    </edge>
    <edge id=":B4_19" function="internal">
        <lane id=":B4_19_0" index="0" speed="3.65" length="3.23" shape="355.71,673.10 356.41,673.65 356.40,674.54 355.67,675.78"/>
    </edge>
    <edge id=":B5_0" function="internal">
        <lane id=":B5_0_0" index="0" speed="8.94" length="11.80" shape="358.79,507.27 358.51,503.60 357.66,500.66 356.25,498.47 354.28,497.01"/>
    </edge>
    <edge id=":B5_1" function="internal">
        <lane id=":B5_1_0" index="0" speed="12.79" length="18.40" shape="358.79,507.27 359.27,502.57 360.72,498.34 363.13,494.57 366.50,491.26"/>
    </edge>
    <edge id=":B5_2" function="internal">
        <lane id=":B5_2_0" index="0" speed="7.44" length="16.31" shape="358.79,507.27 359.44,502.50 361.41,499.81 364.69,499.20 369.27,500.68"/>
    </edge>
    <edge id=":B5_3" function="internal">
        <lane id=":B5_3_0" index="0" speed="3.65" length="4.67" shape="358.79,507.27 359.59,506.07 360.39,505.67 361.19,506.07 361.99,507.27"/>
    </edge>
    <edge id=":B5_4" function="internal">
        <lane id=":B5_4_0" index="0" speed="5.75" length="9.17" shape="367.89,503.57 365.31,502.73 363.46,503.07 362.36,504.59 361.99,507.27"/>
    </edge>
    <edge id=":B5_5" function="internal">
        <lane id=":B5_5_0" index="0" speed="13.89" length="15.10" shape="367.89,503.57 354.28,497.01"/>
    </edge>
    <edge id=":B5_6" function="internal">
        <lane id=":B5_6_0" index="0" speed="7.44" length="4.82" shape="367.89,503.57 363.87,500.90"/>
    </edge>
    <edge id=":B5_7" function="internal">
        <lane id=":B5_7_0" index="0" speed="3.65" length="1.44" shape="367.89,503.57 367.15,502.33"/>
    </edge>
    <edge id=":B5_16" function="internal">
        <lane id=":B5_16_0" index="0" speed="7.44" length="11.49" shape="363.87,500.90 362.30,497.97 363.17,494.75 366.50,491.26"/>
    </edge>
    <edge id=":B5_17" function="internal">
        <lane id=":B5_17_0" index="0" speed="3.65" length="3.23" shape="367.15,502.33 367.14,501.43 367.85,500.88 369.27,500.68"/>
    </edge>
    <edge id=":B5_8" function="internal">
        <lane id=":B5_8_0" index="0" speed="5.75" length="9.17" shape="368.49,493.76 366.62,495.72 366.13,497.53 367.01,499.19 369.27,500.68"/>
    </edge>
    <edge id=":B5_9" function="internal">
        <lane id=":B5_9_0" index="0" speed="11.78" length="15.52" shape="368.49,493.76 365.65,496.55 363.61,499.73 362.39,503.31 361.99,507.27"/>
    </edge>
    <edge id=":B5_10" function="internal">
        <lane id=":B5_10_0" index="0" speed="10.14" length="15.39" shape="368.49,493.76 364.64,496.33 360.99,497.72 357.54,497.95 354.28,497.01"/>
    </edge>
    <edge id=":B5_11" function="internal">
        <lane id=":B5_11_0" index="0" speed="3.65" length="4.67" shape="368.49,493.76 367.06,493.88 366.25,493.51 366.06,492.63 366.50,491.26"/>
    </edge>
    <edge id=":B5_12" function="internal">
        <lane id=":B5_12_0" index="0" speed="8.94" length="11.80" shape="355.67,494.13 358.03,494.77 360.63,494.50 363.45,493.33 366.50,491.26"/>
    </edge>
    <edge id=":B5_13" function="internal">
        <lane id=":B5_13_0" index="0" speed="13.89" length="15.10" shape="355.67,494.13 369.27,500.68"/>
    </edge>
    <edge id=":B5_14" function="internal">
        <lane id=":B5_14_0" index="0" speed="10.14" length="3.58" shape="355.67,494.13 358.43,496.09 358.54,496.25"/>
    </edge>
    <edge id=":B5_15" function="internal">
        <lane id=":B5_15_0" index="0" speed="3.65" length="1.44" shape="355.67,494.13 356.40,495.37"/>
    </edge>
    <edge id=":B5_18" function="internal">
        <lane id=":B5_18_0" index="0" speed="10.14" length="11.81" shape="358.54,496.25 360.41,498.94 361.59,502.66 361.99,507.27"/>
    </edge>
    <edge id=":B5_19" function="internal">
        <lane id=":B5_19_0" index="0" speed="3.65" length="3.23" shape="356.40,495.37 356.41,496.27 355.71,496.81 354.28,497.01"/>
    </edge>
    <edge id=":B6_0" function="internal">
        <lane id=":B6_0_0" index="0" speed="5.75" length="9.17" shape="496.54,399.19 495.58,396.65 494.17,395.43 492.30,395.50 489.97,396.89"/>
    </edge>
    <edge id=":B6_1" function="internal">
        <lane id=":B6_1_0" index="0" speed="13.89" length="15.10" shape="496.54,399.19 493.18,384.47"/>
    </edge>
    <edge id=":B6_2" function="internal">
        <lane id=":B6_2_0" index="0" speed="7.44" length="4.82" shape="496.54,399.19 496.12,394.39"/>
    </edge>
    <edge id=":B6_3" function="internal">
        <lane id=":B6_3_0" index="0" speed="3.65" length="1.44" shape="496.54,399.19 497.05,397.84"/>
    </edge>
    <edge id=":B6_16" function="internal">