<?xml version="1.0" encoding="UTF-8"?>

<!-- generated on 2024-05-29 18:59:05 by Eclipse SUMO duarouter Version 1.20.0
<configuration xmlns:xsi="http://www.w3.org/2001/XMLSchema-instance" xsi:noNamespaceSchemaLocation="http://sumo.dlr.de/xsd/duarouterConfiguration.xsd">

    <input>
        <net-file value="spiderman.net.xml"/>
        <route-files value="trips.trips.xml"/>
    </input>

    <output>
        <output-file value="spider.rou.xml"/>
	<alternatives-output value="spider.rou.alt.xml"/>
    </output>

    <report>
        <ignore-errors value="true"/>
    </report>

</configuration>
-->

<routes xmlns:xsi="http://www.w3.org/2001/XMLSchema-instance" xsi:noNamespaceSchemaLocation="http://sumo.dlr.de/xsd/routes_file.xsd">
    <vehicle id="0" depart="0.00">
        <route edges="C5C6 C6B6 B6A1 A1B3"/>
    </vehicle>
    <vehicle id="1" depart="1.00">
        <route edges="B5A1 A1B3 B3C3"/>
    </vehicle>
    <vehicle id="2" depart="2.00">
        <route edges="C7C6 C6C5"/>
    </vehicle>
    <vehicle id="3" depart="3.00">
        <route edges="D4D5 D5C5 C5B5 B5A1 A1B1 B1A1"/>
    </vehicle>
    <vehicle id="4" depart="4.00">
        <route edges="C1B1 B1A1 A1B3"/>
    </vehicle>
    <vehicle id="5" depart="5.00">
        <route edges="B3C3 C3C2 C2D2"/>
    </vehicle>
    <vehicle id="6" depart="6.00">
        <route edges="A1B3 B3B2"/>
    </vehicle>
    <vehicle id="7" depart="7.00">
        <route edges="C5D5 D5C5 C5C4 C4C3 C3C4"/>
    </vehicle>
    <vehicle id="8" depart="8.00">
        <route edges="B3C3 C3C4 C4C5"/>
    </vehicle>
    <vehicle id="9" depart="9.00">
        <route edges="D2D1 D1C1 C1B1 B1A1 A1B1"/>
    </vehicle>
    <vehicle id="10" depart="10.00">
        <route edges="D2D1 D1C1 C1C7 C7C6 C6D6"/>
    </vehicle>
    <vehicle id="11" depart="11.00">
        <route edges="B6B5 B5A1 A1B2 B2B3"/>
    </vehicle>
    <vehicle id="12" depart="12.00">
        <route edges="D6D7 D7C7 C7B7 B7B6 B6B5"/>
    </vehicle>
    <vehicle id="13" depart="13.00">
        <route edges="B1A1 A1B1 B1B2"/>
    </vehicle>
    <vehicle id="14" depart="14.00">
        <route edges="D3D4 D4C4 C4D4"/>
    </vehicle>
    <vehicle id="15" depart="15.00">
        <route edges="D2D1 D1C1 C1C7 C7C6"/>
    </vehicle>
    <vehicle id="16" depart="16.00">
        <route edges="C3C4 C4B4 B4A1 A1B7 B7C7 C7D7 D7C7"/>
    </vehicle>
    <vehicle id="17" depart="17.00">
        <route edges="B7A1 A1B3 B3C3 C3D3"/>
    </vehicle>
    <vehicle id="18" depart="18.00">
        <route edges="D3C3 C3C4 C4C5 C5B5"/>
    </vehicle>
    <vehicle id="19" depart="19.00">
        <route edges="D4C4 C4C3"/>
    </vehicle>
    <vehicle id="20" depart="20.00">
        <route edges="C7B7 B7A1 A1B4"/>
    </vehicle>
    <vehicle id="21" depart="21.00">
        <route edges="B4A1 A1B5 B5B4"/>
    </vehicle>
    <vehicle id="22" depart="22.00">
        <route edges="A1B7 B7A1 A1B4 B4A1"/>
    </vehicle>
    <vehicle id="23" depart="23.00">
        <route edges="B1B2 B2A1 A1B5 B5A1"/>
    </vehicle>
    <vehicle id="24" depart="24.00">
        <route edges="C5C6 C6B6 B6C6"/>
    </vehicle>
    <vehicle id="25" depart="25.00">
        <route edges="B7A1 A1B3 B3B4"/>
    </vehicle>
    <vehicle id="26" depart="26.00">
        <route edges="B4C4 C4C5 C5C6 C6D6 D6C6"/>
    </vehicle>
    <vehicle id="27" depart="27.00">
        <route edges="C5D5 D5C5 C5B5"/>
    </vehicle>
    <vehicle id="28" depart="28.00">
        <route edges="B2C2 C2C1 C1C7 C7C6"/>
    </vehicle>
    <vehicle id="29" depart="29.00">
        <route edges="B2B3 B3A1 A1B7 B7A1"/>
    </vehicle>
    <vehicle id="30" depart="30.00">
        <route edges="D7D6 D6C6 C6C5 C5C6"/>
    </vehicle>
    <vehicle id="31" depart="31.00">
        <route edges="C3D3 D3C3 C3B3 B3A1 A1B6 B6C6 C6C7"/>
    </vehicle>
    <vehicle id="32" depart="32.00">
        <route edges="D3D2 D2D1 D1D7"/>
    </vehicle>
    <vehicle id="33" depart="33.00">
        <route edges="B4A1 A1B3"/>
    </vehicle>
    <vehicle id="34" depart="34.00">
        <route edges="B5C5 C5B5 B5B4 B4C4"/>
    </vehicle>
    <vehicle id="35" depart="35.00">
        <route edges="B3B4 B4B5 B5B6 B6C6 C6D6 D6D5"/>
    </vehicle>
    <vehicle id="36" depart="36.00">
        <route edges="D4D3 D3C3 C3B3 B3B4 B4B5 B5C5"/>
    </vehicle>
    <vehicle id="37" depart="37.00">
        <route edges="C6B6 B6B7 B7B6"/>
    </vehicle>
    <vehicle id="38" depart="38.00">
        <route edges="D5D4 D4C4 C4B4 B4A1 A1B1 B1C1 C1D1"/>
    </vehicle>
    <vehicle id="39" depart="39.00">
        <route edges="B4C4 C4B4 B4B3"/>
    </vehicle>
    <vehicle id="40" depart="40.00">
        <route edges="C4B4 B4C4"/>
    </vehicle>
    <vehicle id="41" depart="41.00">
        <route edges="C4C5 C5D5 D5C5"/>
    </vehicle>
    <vehicle id="42" depart="42.00">
        <route edges="B7B6 B6A1 A1B3 B3C3"/>
    </vehicle>
    <vehicle id="43" depart="43.00">
        <route edges="D7D6 D6C6 C6B6 B6A1 A1B2 B2C2 C2D2"/>
    </vehicle>
    <vehicle id="44" depart="44.00">
        <route edges="B1A1 A1B4"/>
    </vehicle>
    <vehicle id="45" depart="45.00">
        <route edges="B1B7 B7B6 B6B5 B5C5 C5C4"/>
    </vehicle>
    <vehicle id="46" depart="46.00">
        <route edges="D2C2 C2C1 C1B1"/>
    </vehicle>
    <vehicle id="47" depart="47.00">
        <route edges="A1B6 B6B7 B7B1"/>
    </vehicle>
    <vehicle id="48" depart="48.00">
        <route edges="D7D6 D6C6 C6B6 B6A1 A1B3 B3C3 C3C2"/>
    </vehicle>
    <vehicle id="49" depart="49.00">
        <route edges="D7C7 C7B7 B7A1 A1B4 B4C4 C4D4 D4C4"/>
    </vehicle>
</routes>
