<?xml version="1.0" encoding="UTF-8"?>

<!-- generated on 2024-05-29 18:37:44.280442 by randomtrip.py UNKNOWN
<configuration>
    <net-file value="spiderman.net.xml"/>
    <end value="50.0"/>
</configuration>
-->

<routes xmlns:xsi="http://www.w3.org/2001/XMLSchema-instance" xsi:noNamespaceSchemaLocation="http://sumo.dlr.de/xsd/routes_file.xsd">
    <trip id="0" depart="0.00" from="C5C6" to="A1B3"/>
    <trip id="1" depart="1.00" from="B5A1" to="B3C3"/>
    <trip id="2" depart="2.00" from="C7C6" to="C6C5"/>
    <trip id="3" depart="3.00" from="D4D5" to="B1A1"/>
    <trip id="4" depart="4.00" from="C1B1" to="A1B3"/>
    <trip id="5" depart="5.00" from="B3C3" to="C2D2"/>
    <trip id="6" depart="6.00" from="A1B3" to="B3B2"/>
    <trip id="7" depart="7.00" from="C5D5" to="C3C4"/>
    <trip id="8" depart="8.00" from="B3C3" to="C4C5"/>
    <trip id="9" depart="9.00" from="D2D1" to="A1B1"/>
    <trip id="10" depart="10.00" from="D2D1" to="C6D6"/>
    <trip id="11" depart="11.00" from="B6B5" to="B2B3"/>
    <trip id="12" depart="12.00" from="D6D7" to="B6B5"/>
    <trip id="13" depart="13.00" from="B1A1" to="B1B2"/>
    <trip id="14" depart="14.00" from="D3D4" to="C4D4"/>
    <trip id="15" depart="15.00" from="D2D1" to="C7C6"/>
    <trip id="16" depart="16.00" from="C3C4" to="D7C7"/>
    <trip id="17" depart="17.00" from="B7A1" to="C3D3"/>
    <trip id="18" depart="18.00" from="D3C3" to="C5B5"/>
    <trip id="19" depart="19.00" from="D4C4" to="C4C3"/>
    <trip id="20" depart="20.00" from="C7B7" to="A1B4"/>
    <trip id="21" depart="21.00" from="B4A1" to="B5B4"/>
    <trip id="22" depart="22.00" from="A1B7" to="B4A1"/>
    <trip id="23" depart="23.00" from="B1B2" to="B5A1"/>
    <trip id="24" depart="24.00" from="C5C6" to="B6C6"/>
    <trip id="25" depart="25.00" from="B7A1" to="B3B4"/>
    <trip id="26" depart="26.00" from="B4C4" to="D6C6"/>
    <trip id="27" depart="27.00" from="C5D5" to="C5B5"/>
    <trip id="28" depart="28.00" from="B2C2" to="C7C6"/>
    <trip id="29" depart="29.00" from="B2B3" to="B7A1"/>
    <trip id="30" depart="30.00" from="D7D6" to="C5C6"/>
    <trip id="31" depart="31.00" from="C3D3" to="C6C7"/>
    <trip id="32" depart="32.00" from="D3D2" to="D1D7"/>
    <trip id="33" depart="33.00" from="B4A1" to="A1B3"/>
    <trip id="34" depart="34.00" from="B5C5" to="B4C4"/>
    <trip id="35" depart="35.00" from="B3B4" to="D6D5"/>
    <trip id="36" depart="36.00" from="D4D3" to="B5C5"/>
    <trip id="37" depart="37.00" from="C6B6" to="B7B6"/>
    <trip id="38" depart="38.00" from="D5D4" to="C1D1"/>
    <trip id="39" depart="39.00" from="B4C4" to="B4B3"/>
    <trip id="40" depart="40.00" from="C4B4" to="B4C4"/>
    <trip id="41" depart="41.00" from="C4C5" to="D5C5"/>
    <trip id="42" depart="42.00" from="B7B6" to="B3C3"/>
    <trip id="43" depart="43.00" from="D7D6" to="C2D2"/>
    <trip id="44" depart="44.00" from="B1A1" to="A1B4"/>
    <trip id="45" depart="45.00" from="B1B7" to="C5C4"/>
    <trip id="46" depart="46.00" from="D2C2" to="C1B1"/>
    <trip id="47" depart="47.00" from="A1B6" to="B7B1"/>
    <trip id="48" depart="48.00" from="D7D6" to="C3C2"/>
    <trip id="49" depart="49.00" from="D7C7" to="D4C4"/>
</routes>
